/*--------------------------------*- C++ -*----------------------------------*\
| =========                 |                                                 |
| \\      /  F ield         | OpenFOAM: The Open Source CFD Toolbox           |
|  \\    /   O peration     | Version:  dev                                   |
|   \\  /    A nd           | Web:      www.OpenFOAM.org                      |
|    \\/     M anipulation  |                                                 |
\*---------------------------------------------------------------------------*/
FoamFile
{
    version     2.0;
    format      ascii;
    class       dictionary;
    object      blockMeshDict;
}
// * * * * * * * * * * * * * * * * * * * * * * * * * * * * * * * * * * * * * //

vertices
(
    (  -38   -43    -1)
    (   75   -43    -1)
    (   75    43    -1)
    (  -38    43    -1)
    (  -38   -43     1)
    (   75   -43     1)
    (   75    43     1)
    (  -38    43     1)
);

blocks
(
    hex (0 1 2 3 4 5 6 7) (338 258 1) simpleGrading (1 1 1)
);

boundary
(
    inlet
    {
        type patch;
        faces
        (
            (0 4 7 3)
        );
    }

    outlet
    {
        type patch;
        faces
        (
            (2 6 5 1)
        );
    }

    top
    {
        type patch;
        faces
        (
            (3 7 6 2)
        );
    }

    bottom
    {
        type patch;
        faces
        (

            (1 5 4 0)
        );
    }

    back
    {
        type empty;
        faces
        (
            (0 3 2 1)
        );
    }

    front
    {
        type empty;
        faces
        (
            (6 7 4 5)
        );
    }
);

// ************************************************************************* //
