/*--------------------------------*- C++ -*----------------------------------*\
| =========                 |                                                 |
| \\      /  F ield         | OpenFOAM: The Open Source CFD Toolbox           |
|  \\    /   O peration     | Version:  1.7.1                                 |
|   \\  /    A nd           | Web:      www.OpenFOAM.com                      |
|    \\/     M anipulation  |                                                 |
\*---------------------------------------------------------------------------*/
FoamFile
{
    version     2.0;
    format      ascii;
    class       dictionary;
    location    "system";
    object      setFieldsDict;
}
// * * * * * * * * * * * * * * * * * * * * * * * * * * * * * * * * * * * * * //

defaultFieldValues ( volScalarFieldValue cellDist 0 );

regions 
(
      boxToCell 
      {
           box ( -1000 -1000 -1 ) ( 1000 0.00 1 ) ;
           fieldValues ( volScalarFieldValue cellDist 0); 
      }
      boxToCell 
      {
           box ( -1000 0.00 -1 ) ( 1000 1000 1 ) ;
           fieldValues ( volScalarFieldValue cellDist 1); 
      }
);


// ************************************************************************* //
