/*--------------------------------*- C++ -*----------------------------------*\
| =========                 |                                                 |
| \\      /  F ield         | OpenFOAM: The Open Source CFD Toolbox           |
|  \\    /   O peration     | Version:  4.1                                   |
|   \\  /    A nd           | Web:      www.OpenFOAM.org                      |
|    \\/     M anipulation  |                                                 |
\*---------------------------------------------------------------------------*/
FoamFile
{
    version     2.0;
    format      ascii;
    class       volScalarField;
    location    "0";
    object      nut;
}
// * * * * * * * * * * * * * * * * * * * * * * * * * * * * * * * * * * * * * //

#include	"constants"

dimensions      [0 2 -1 0 0 0 0];

internalField   uniform $nut;

boundaryField
{

    inlet
    {
        type            	calculated;
        value 			$internalField;
    }

    outlet
    {
        type            	calculated;
        value 			$internalField;
    }

    top 
    {
        type            	calculated;
        value 			$internalField;
    }

    bottom
    {
        type            	calculated;
        value 			$internalField;
    }

    back 
    {
        type                	empty;
    }

    front
    {
        type                	empty;
    }

}


// ************************************************************************* //
