/*--------------------------------*- C++ -*----------------------------------*\
| =========                 |                                                 |
| \\      /  F ield         | OpenFOAM: The Open Source CFD Toolbox           |
|  \\    /   O peration     | Version:  4.1                                   |
|   \\  /    A nd           | Web:      www.OpenFOAM.org                      |
|    \\/     M anipulation  |                                                 |
\*---------------------------------------------------------------------------*/
FoamFile
{
    version     2.0;
    format      ascii;
    class       volScalarField;
    location    "0";
    object      omega;
}
// * * * * * * * * * * * * * * * * * * * * * * * * * * * * * * * * * * * * * //

#include	"constants"

dimensions      [0 0 -1 0 0 0 0];

internalField   uniform $omega;

boundaryField
{

    inlet
    {
        type            	freestream;
        freestreamValue 	$internalField;
    }

    outlet
    {
        type            	freestream;
        freestreamValue 	$internalField;
    }

    top 
    {
        type            	freestream;
        freestreamValue 	$internalField;
    }

    bottom
    {
        type            	freestream;
        freestreamValue 	$internalField;
    }

    back 
    {
        type                	empty;
    }

    front
    {
        type                	empty;
    }

}


// ************************************************************************* //
